@<TRIPOS>MOLECULE
NAP
   74    78     1     0     0
SMALL
bcc


@<TRIPOS>ATOM
      1 N           -6.6100    15.7510     2.4280 nb       160 NAP      -0.810000
      2 C           -2.2290    13.3330     1.3830 c3       160 NAP       0.194800
      3 O            2.8450     9.3080     1.0240 o        160 NAP      -0.851000
      4 P           -0.0860    16.6400     0.3540 p5       160 NAP       1.309900
      5 P1           2.2510     9.4000     2.3940 p5       160 NAP       1.501800
      6 P2           3.6490     8.3720     4.3800 p5       160 NAP       1.596800
      7 C1           5.3720     2.9780     2.8580 c3       160 NAP       0.392300
      8 N1           5.3540     2.2900     1.5740 nh       160 NAP      -0.532200
      9 O1           3.1280     8.4910     5.7770 o        160 NAP      -0.898500
     10 C2          -6.1370    15.2480     1.2720 ca       160 NAP       0.622900
     11 N2          -5.0240    14.5230     1.1010 nb       160 NAP      -0.676000
     12 O2           1.2050    15.9730     0.0210 o        160 NAP      -0.918833
     13 C3          -0.9790    14.2130     1.2030 c3       160 NAP       0.175100
     14 N3          -6.2400    16.1770     4.6040 nh       160 NAP      -0.915500
     15 O3           2.6740    10.6230     3.1060 o        160 NAP      -0.851000
     16 C4           6.8410     3.0550     3.2650 c3       160 NAP       0.097100
     17 N4          -3.8770    14.3880     4.4720 nc       160 NAP      -0.613100
     18 O4          -1.1970    15.4490     0.4360 os       160 NAP      -0.540200
     19 C5           5.2070     0.9140     1.7220 c2       160 NAP       0.191000
     20 N5           6.1160    -2.4450     0.6170 n        160 NAP      -0.681000
     21 O5           6.8580     2.3610     4.5000 oh       160 NAP      -0.627800
     22 C6          -0.0810    13.1640     0.5090 c3       160 NAP       0.106100
     23 N6          -3.1270    13.7320     2.4370 na       160 NAP      -0.210000
     24 O6           4.7900     9.2480     3.9330 o        160 NAP      -0.898500
     25 C7           7.0370     4.5400     3.5010 c3       160 NAP       0.131100
     26 O7          -0.3820    17.4360    -0.8740 o        160 NAP      -0.918833
     27 C8           5.6670     0.0230     0.8270 ce       160 NAP      -0.372400
     28 O8           2.4630     8.2180     3.3660 os       160 NAP      -0.711800
     29 C9          -4.3480    14.2690     2.2290 ca       160 NAP       0.450800
     30 O9          -0.3110    13.0770    -0.8820 oh       160 NAP      -0.645800
     31 C10         -0.5220    11.7810     1.0550 c3       160 NAP       0.096100
     32 O10          8.0090     4.6430     4.5090 oh       160 NAP      -0.681800
     33 C11          5.6460     5.0080     3.9540 c3       160 NAP       0.051100
     34 O11          0.1470    17.5240     1.5440 o        160 NAP      -0.918833
     35 C12          6.3160     0.5070    -0.4660 c3       160 NAP       0.058000
     36 O12         -1.7150    12.0490     1.7860 os       160 NAP      -0.413600
     37 C13         -4.7500    14.6840     3.4690 ca       160 NAP      -0.191200
     38 O13          4.8830     4.3320     2.9190 os       160 NAP      -0.435600
     39 C14          0.6110    11.2520     1.9210 c3       160 NAP       0.191400
     40 O14          0.7070     9.8250     2.2140 os       160 NAP      -0.578200
     41 C15          5.4440     6.5480     3.9910 c3       160 NAP       0.260400
     42 O15          4.0570     6.8440     4.1300 os       160 NAP      -0.553200
     43 C16          6.6290     1.9840    -0.4190 c2       160 NAP      -0.265200
     44 O16          4.6300    -1.7460     2.0150 o        160 NAP      -0.691100
     45 C17         -5.9090    15.4450     3.5150 ca       160 NAP       0.662200
     46 C18          6.0780     2.7930     0.4880 c2       160 NAP       0.072000
     47 C19          5.4730    -1.4100     1.2130 c        160 NAP       0.692300
     48 C20         -2.9000    13.7630     3.8120 cd       160 NAP       0.470700
     49 H            6.8420     1.3950     4.2340 ho       160 NAP       0.431000
     50 H25         -1.9960    13.3530     4.2450 h5       160 NAP       0.091800
     51 H1           0.4140    13.5710    -1.3320 ho       160 NAP       0.488000
     52 H2           7.6050     3.9960     5.1460 ho       160 NAP       0.511000
     53 H3          -2.7780    13.2500     0.4330 h2       160 NAP       0.110700
     54 H4           4.8150     2.4270     3.6350 h2       160 NAP       0.059700
     55 H5          -0.5920    14.4640     2.2020 h1       160 NAP       0.081700
     56 H6           4.7690     0.5990     2.6620 h4       160 NAP       0.158000
     57 H7           7.6020     2.6950     2.5280 h1       160 NAP       0.067700
     58 H8           0.9750    13.3710     0.7170 h1       160 NAP       0.013700
     59 H9           7.3100     5.0290     2.5510 h1       160 NAP       0.120700
     60 H10         -0.7430    11.0760     0.2560 h1       160 NAP       0.087700
     61 H11          5.4160     4.6010     4.9530 h1       160 NAP       0.080700
     62 H12          6.1980     3.8760     0.4440 h4       160 NAP       0.209000
     63 H13          5.5590     0.4580    -1.2370 hc       160 NAP       0.007200
     64 H14          7.2620     2.3630    -1.2130 ha       160 NAP       0.145000
     65 H15          0.6930    11.8720     2.8300 h1       160 NAP       0.032700
     66 H16          1.5000    11.4700     1.3020 h1       160 NAP       0.032700
     67 H17          5.9680     6.9640     4.8610 h1       160 NAP      -0.011800
     68 H18          5.8330     7.0070     3.0730 h1       160 NAP      -0.011800
     69 H19         -5.4310    16.2610     5.2000 hn       160 NAP       0.383800
     70 H20         -6.6920    17.0240     4.3070 hn       160 NAP       0.383800
     71 H21          5.9140    -3.3250     1.0700 hn       160 NAP       0.288000
     72 H22          6.9110    -2.3500     0.0010 hn       160 NAP       0.288000
     73 H23          7.1490    -0.1000    -0.8320 hc       160 NAP       0.007200
     74 H24         -6.6700    15.4990     0.3630 h5       160 NAP       0.016100
@<TRIPOS>BOND
     1     1    10 ar  
     2     1    45 ar  
     3     2    13 1   
     4     2    23 1   
     5     2    36 1   
     6     2    53 1   
     7     3     5 1   
     8     4    12 1   
     9     4    18 1   
    10     4    26 1   
    11     4    34 1   
    12     5    15 1   
    13     5    28 1   
    14     5    40 1   
    15     6     9 1   
    16     6    24 1   
    17     6    28 1   
    18     6    42 1   
    19     7     8 1   
    20     7    16 1   
    21     7    38 1   
    22     7    54 1   
    23     8    19 1   
    24     8    46 1   
    25    10    11 ar  
    26    10    74 1   
    27    11    29 ar  
    28    13    18 1   
    29    13    22 1   
    30    13    55 1   
    31    14    45 1   
    32    14    69 1   
    33    14    70 1   
    34    16    21 1   
    35    16    25 1   
    36    16    57 1   
    37    17    37 1   
    38    17    48 2   
    39    19    27 2   
    40    19    56 1   
    41    20    47 1   
    42    20    71 1   
    43    20    72 1   
    44    21    49 1   
    45    22    30 1   
    46    22    31 1   
    47    22    58 1   
    48    23    29 1   
    49    23    48 1   
    50    25    32 1   
    51    25    33 1   
    52    25    59 1   
    53    27    35 1   
    54    27    47 1   
    55    29    37 ar  
    56    30    51 1   
    57    31    36 1   
    58    31    39 1   
    59    31    60 1   
    60    32    52 1   
    61    33    38 1   
    62    33    41 1   
    63    33    61 1   
    64    35    43 1   
    65    35    63 1   
    66    35    73 1   
    67    37    45 ar  
    68    39    40 1   
    69    39    65 1   
    70    39    66 1   
    71    41    42 1   
    72    41    67 1   
    73    41    68 1   
    74    43    46 2   
    75    43    64 1   
    76    44    47 2   
    77    46    62 1   
    78    48    50 1   
@<TRIPOS>SUBSTRUCTURE
     1 NAP         1 TEMP              0 ****  ****    0 ROOT
