@<TRIPOS>MOLECULE
FOL
   56    58     1     0     0
SMALL
bcc


@<TRIPOS>ATOM
      1 N            2.9340    -6.5760    -0.5290 n4       161 FOL      -0.769600
      2 C            5.8630    -3.3960   -10.2470 c3       161 FOL      -0.037300
      3 O            7.5870    -1.0910    -9.4310 o        161 FOL      -0.632100
      4 C1           6.8530    -1.6470    -8.6210 c        161 FOL       0.659700
      5 O1           6.3670    -6.8950   -12.4240 o        161 FOL      -0.884800
      6 C2           6.3120    -4.8650   -10.0430 c3       161 FOL      -0.055400
      7 N2           2.2070    -4.3160    -1.1660 ne       161 FOL      -0.578000
      8 O2           7.7390    -7.6230   -10.9100 o        161 FOL      -0.884800
      9 C3           7.4010    -5.2980   -11.0490 c3       161 FOL      -0.160400
     10 N3           4.2280    -5.2380    -1.9590 n        161 FOL      -0.407500
     11 O3           3.4720    -3.5900   -10.0630 o        161 FOL      -0.851300
     12 C4           7.1940    -6.7310   -11.5340 c        161 FOL       0.908600
     13 N4           5.1790     0.8490    -3.7250 nh       161 FOL      -0.721600
     14 O4           4.2070    -2.8970   -11.9170 o        161 FOL      -0.851300
     15 C5           2.9400    -5.3760    -1.4240 ce       161 FOL       0.250500
     16 N5           4.4980    -1.5050    -2.1940 n4       161 FOL      -0.800000
     17 O5           5.9580    -3.9070    -2.5120 o        161 FOL      -0.686500
     18 C6           4.7920    -4.0240    -2.2030 c        161 FOL       0.650500
     19 C7           4.0070    -2.8440    -1.6520 c3       161 FOL       0.109200
     20 N7           1.6970    -2.0320    -1.5520 nh       161 FOL      -0.699200
     21 C8           2.2120    -0.6640    -1.7400 c3       161 FOL       0.144800
     22 C9           3.3740    -0.6570    -2.7590 c3       161 FOL       0.111500
     23 C10          2.5330    -3.1410    -1.6610 c2       161 FOL       0.184200
     24 N10          5.9830    -2.6640    -8.9660 n        161 FOL      -0.498900
     25 C11          3.7950     0.7850    -3.1700 c3       161 FOL       0.141800
     26 C12          6.4980    -1.0450    -7.2800 ca       161 FOL      -0.110600
     27 C13          7.4340    -0.4330    -6.4150 ca       161 FOL      -0.080000
     28 C14          6.9970     0.1890    -5.2200 ca       161 FOL      -0.157500
     29 C15          5.6290     0.2100    -4.8760 ca       161 FOL       0.030600
     30 C16          4.7160    -0.4050    -5.7330 ca       161 FOL      -0.157500
     31 C17          5.1430    -1.0410    -6.8960 ca       161 FOL      -0.080000
     32 C18          4.4170    -3.3570   -10.8040 c        161 FOL       0.907600
     33 H            5.3740    -2.9810    -8.2260 hn       161 FOL       0.328500
     34 HN2          4.9470    -1.0250    -1.4010 hn       161 FOL       0.417800
     35 HA           6.4960    -2.9090   -10.9980 h1       161 FOL       0.074700
     36 HB1          5.4470    -5.5320   -10.1350 hc       161 FOL       0.043700
     37 HB2          6.6810    -5.0230    -9.0220 hc       161 FOL       0.043700
     38 HG1          8.3900    -5.1970   -10.5850 hc       161 FOL       0.038700
     39 HG2          7.3870    -4.6540   -11.9360 hc       161 FOL       0.038700
     40 HC           3.0410    -1.1570    -3.6720 hx       161 FOL       0.124700
     41 H1           2.0470    -7.0750    -0.5530 hn       161 FOL       0.488800
     42 H2           3.6640    -7.2810    -0.7970 hn       161 FOL       0.488800
     43 H3           4.9170    -5.9960    -2.0270 hn       161 FOL       0.401500
     44 H4           3.7320     1.4300    -2.2840 h1       161 FOL       0.046200
     45 H5           3.0710     1.1720    -3.8970 h1       161 FOL       0.046200
     46 H6           5.8510     1.4040    -3.2100 hn       161 FOL       0.376800
     47 H7           8.4960    -0.4430    -6.6580 ha       161 FOL       0.168000
     48 H8           7.7220     0.6790    -4.5740 ha       161 FOL       0.128500
     49 H9           3.6560    -0.3750    -5.5260 ha       161 FOL       0.128500
     50 H10          4.3840    -1.4880    -7.5240 ha       161 FOL       0.168000
     51 H11          1.4190     0.0160    -2.0440 h1       161 FOL       0.039700
     52 H12          2.6040    -0.3230    -0.7740 h1       161 FOL       0.039700
     53 H13          0.9550    -2.1240    -0.8680 hn       161 FOL       0.372800
     54 H14          3.0960    -6.3650     0.4660 hn       161 FOL       0.488800
     55 H15          4.2580    -2.8550    -0.5970 hx       161 FOL       0.094700
     56 H16          5.2540    -1.6650    -2.8870 hn       161 FOL       0.417800
@<TRIPOS>BOND
     1     1    15 1   
     2     1    41 1   
     3     1    42 1   
     4     1    54 1   
     5     2     6 1   
     6     2    24 1   
     7     2    32 1   
     8     2    35 1   
     9     3     4 2   
    10     4    24 1   
    11     4    26 1   
    12     5    12 1   
    13     6     9 1   
    14     6    36 1   
    15     6    37 1   
    16     7    15 1   
    17     7    23 2   
    18     8    12 1   
    19     9    12 1   
    20     9    38 1   
    21     9    39 1   
    22    10    15 2   
    23    10    18 1   
    24    10    43 1   
    25    11    32 1   
    26    13    25 1   
    27    13    29 1   
    28    13    46 1   
    29    14    32 1   
    30    16    19 1   
    31    16    22 1   
    32    16    34 1   
    33    16    56 1   
    34    17    18 2   
    35    18    19 1   
    36    19    23 1   
    37    19    55 1   
    38    20    21 1   
    39    20    23 1   
    40    20    53 1   
    41    21    22 1   
    42    21    51 1   
    43    21    52 1   
    44    22    25 1   
    45    22    40 1   
    46    24    33 1   
    47    25    44 1   
    48    25    45 1   
    49    26    27 ar  
    50    26    31 ar  
    51    27    28 ar  
    52    27    47 1   
    53    28    29 ar  
    54    28    48 1   
    55    29    30 ar  
    56    30    31 ar  
    57    30    49 1   
    58    31    50 1   
@<TRIPOS>SUBSTRUCTURE
     1 FOL         1 TEMP              0 ****  ****    0 ROOT
